Version 4
SHEET 1 2608 1136
WIRE 384 -592 256 -592
WIRE 512 -592 384 -592
WIRE 784 -592 560 -592
WIRE 256 -560 256 -592
WIRE -608 -528 -608 -560
WIRE 560 -496 560 -592
WIRE 512 -480 512 -592
WIRE -704 -432 -704 -464
WIRE -608 -416 -608 -448
WIRE 256 -416 256 -480
WIRE 512 -368 512 -432
WIRE 560 -368 560 -416
WIRE 560 -368 512 -368
WIRE -704 -320 -704 -352
WIRE 256 -304 256 -336
WIRE 560 -304 560 -368
WIRE -720 -160 -816 -160
WIRE -720 -128 -720 -160
WIRE -496 -128 -512 -128
WIRE -368 -128 -416 -128
WIRE -304 -128 -368 -128
WIRE -112 -128 -224 -128
WIRE -816 -16 -816 -160
WIRE -720 -16 -720 -48
WIRE -544 -16 -720 -16
WIRE -368 0 -368 -128
WIRE -304 0 -368 0
WIRE -544 16 -640 16
WIRE -720 32 -720 -16
WIRE -112 32 -112 -128
WIRE -112 32 -160 32
WIRE -48 32 -112 32
WIRE 64 32 32 32
WIRE 256 32 64 32
WIRE 400 32 256 32
WIRE 560 32 480 32
WIRE 704 32 560 32
WIRE 64 48 64 32
WIRE 704 48 704 32
WIRE -304 64 -368 64
WIRE 560 64 560 32
WIRE 784 64 752 64
WIRE -640 112 -640 96
WIRE -544 112 -640 112
WIRE 416 112 416 80
WIRE 784 112 752 112
WIRE -720 144 -720 112
WIRE -544 144 -720 144
WIRE -816 176 -816 64
WIRE -720 176 -720 144
WIRE -224 176 -224 112
WIRE 64 176 64 112
WIRE 464 176 464 80
WIRE 560 176 560 128
WIRE 704 176 704 128
FLAG 256 32 +AIN
FLAG 784 64 0
FLAG -704 -320 0
FLAG 464 176 0
FLAG -608 -416 0
FLAG 64 176 0
FLAG 560 176 0
FLAG 704 176 0
FLAG -704 -464 Acq_clk
FLAG -608 -560 Conv_clk
FLAG 416 112 Acq_clk
FLAG 784 112 Conv_clk
FLAG 256 -304 0
FLAG 560 -304 0
FLAG 384 -592 error_in_volts
FLAG 784 -592 error_in_lsb
FLAG -960 -176 V+
FLAG -960 -96 0
FLAG -512 -32 V+
FLAG -1056 -176 V-
FLAG -1056 -96 0
FLAG -512 160 V-
FLAG -816 176 0
FLAG -720 176 0
FLAG -272 112 V-
FLAG -224 176 0
FLAG -272 -48 V+
FLAG -512 -128 0
FLAG -432 128 0
SYMBOL sw 496 32 M270
WINDOW 0 23 24 VLeft 2
WINDOW 3 -26 25 VLeft 2
SYMATTR InstName S1
SYMBOL sw 704 32 M0
WINDOW 0 -46 14 Left 2
WINDOW 3 -48 111 Left 2
SYMATTR InstName S3
SYMBOL cap 544 64 R0
SYMATTR InstName C1
SYMATTR Value {Csamp}
SYMBOL voltage -704 -448 R0
WINDOW 3 31 100 Left 2
WINDOW 123 0 0 Left 0
WINDOW 39 0 0 Left 0
SYMATTR Value PULSE(0 1 0 0.1n 0.1n {1/SR - Tconv - 0.4n} {1/SR})
SYMATTR InstName V1
SYMBOL voltage -608 -544 R0
WINDOW 3 19 103 Left 2
WINDOW 123 0 0 Left 0
WINDOW 39 0 0 Left 0
SYMATTR Value PULSE(0 1 {1/SR - Tconv - 0.2n} 0.1n 0.1n {Tconv} {1/SR})
SYMATTR InstName V4
SYMBOL res 48 16 R90
WINDOW 0 0 56 VBottom 2
WINDOW 3 32 56 VTop 2
SYMATTR InstName R4
SYMATTR Value 10
SYMBOL cap 48 48 R0
SYMATTR InstName C3
SYMATTR Value 8.2n
SYMBOL e 560 -512 R0
SYMATTR InstName E1
SYMATTR Value {1/one_lsb}
SYMBOL voltage -816 -32 R0
WINDOW 123 0 0 Left 0
WINDOW 39 0 0 Left 0
WINDOW 3 31 91 Left 2
SYMATTR Value 1
SYMATTR InstName V5
SYMBOL bv 256 -576 R0
SYMATTR InstName B1
SYMATTR Value V=V(+AIN)
SYMBOL bv 256 -432 R0
SYMATTR InstName B2
SYMATTR Value V={-1*Vref}
SYMBOL Opamps\\AD8421 -512 64 R0
SYMATTR InstName U1
SYMBOL res -656 0 R0
SYMATTR InstName R5
SYMATTR Value 1.1k
SYMBOL voltage -960 -192 R0
WINDOW 123 0 0 Left 0
WINDOW 39 0 0 Left 0
SYMATTR InstName V2
SYMATTR Value 5
SYMBOL voltage -1056 -192 R0
WINDOW 123 0 0 Left 0
WINDOW 39 0 0 Left 0
SYMATTR InstName V3
SYMATTR Value -5
SYMBOL res -736 16 R0
SYMATTR InstName R6
SYMATTR Value 0.1
SYMBOL res -736 -144 R0
SYMATTR InstName R3
SYMATTR Value 1
SYMBOL Opamps\\LT6236 -272 32 R0
SYMATTR InstName U3
SYMBOL res -400 -144 R90
WINDOW 0 0 56 VBottom 2
WINDOW 3 32 56 VTop 2
SYMATTR InstName R2
SYMATTR Value 1k
SYMBOL res -208 -144 R90
WINDOW 0 0 56 VBottom 2
WINDOW 3 32 56 VTop 2
SYMATTR InstName R1
SYMATTR Value 1.5k
TEXT 400 -200 Left 2 ;ADS7853 Analog Input Stage
TEXT -520 -536 Left 2 !.model SW SW(Ron={Rdson} Roff=1G Vt=.5 Vh=.1)
TEXT -1064 -704 Left 2 ;ADC Parameters:
TEXT -1064 -608 Left 2 !.param Csamp = 40p
TEXT -1064 -560 Left 2 !.param Rdson = 50
TEXT -1064 -512 Left 2 !.param Vref=2.5
TEXT -1064 -464 Left 2 !.param Tconv=450n
TEXT -1064 -416 Left 2 !.param Tacq=520.2n
TEXT -1064 -368 Left 2 !.param SR=1Meg
TEXT -1064 -320 Left 2 !.param Tclk=50n
TEXT -1064 -656 Left 2 !.param Resolution=14
TEXT -152 400 Left 2 !.tran 0 {(cycles+1)/SR} {1/SR} {10e-3/SR}
TEXT -728 -704 Left 2 ;Switch Timing and Characteristics
TEXT 632 -344 Left 2 !.param one_lsb={Vref / pow(2,Resolution)}
TEXT 224 -704 Left 2 ;Convert volts to LSBs for plotting
TEXT -152 320 Left 2 ;Transient Sim Directive and Params
TEXT -152 360 Left 2 !.param cycles = 5
TEXT -152 440 Left 2 !.options plotwinsize=0 numdgt=15 nomarch
TEXT -488 -200 Left 2 ;Analog Front End
LINE Normal -576 -512 -576 -512 2
RECTANGLE Normal 928 272 192 -224 2
RECTANGLE Normal -800 -256 -1072 -768 2
RECTANGLE Normal 144 -256 -752 -768 2
RECTANGLE Normal 1152 -256 192 -768 2
RECTANGLE Normal -880 272 144 -224 2
